<?xml version="1.0" encoding="UTF-8"?>
<!-- Road network definition for traffic simulation -->
<net version="1.20" junctionCornerDetail="5" xmlns:xsi="http://www.w3.org/2001/XMLSchema-instance" xsi:noNamespaceSchemaLocation="http://sumo.dlr.de/xsd/net_file.xsd">

    <location netOffset="0.00,0.00" convBoundary="0.00,0.00,200.00,200.00" origBoundary="-10000000000.00,-10000000000.00,10000000000.00,10000000000.00" projParameter="!"/>

    <!-- Edges (Roads) -->
    <edge id="1to2" from="1" to="2" priority="1">
        <lane id="1to2_0" index="0" speed="13.89" length="100.00" shape="0.00,0.00 100.00,0.00"/>
    </edge>
    
    <edge id="2to3" from="2" to="3" priority="1">
        <lane id="2to3_0" index="0" speed="13.89" length="100.00" shape="100.00,0.00 200.00,0.00"/>
    </edge>
    
    <edge id="3to4" from="3" to="4" priority="1">
        <lane id="3to4_0" index="0" speed="13.89" length="100.00" shape="200.00,0.00 200.00,100.00"/>
    </edge>
    
    <edge id="4to1" from="4" to="1" priority="1">
        <lane id="4to1_0" index="0" speed="13.89" length="100.00" shape="200.00,100.00 0.00,100.00"/>
    </edge>

    <!-- Junctions (Intersections) -->
    <junction id="1" type="priority" x="0.00" y="0.00" incLanes="4to1_0" intLanes="" shape="0.00,0.00 0.00,3.20 0.00,0.00">
        <request index="0" response="0" foes="0"/>
    </junction>
    
    <junction id="2" type="priority" x="100.00" y="0.00" incLanes="1to2_0" intLanes="" shape="100.00,0.00 100.00,3.20 100.00,0.00">
        <request index="0" response="0" foes="0"/>
    </junction>
    
    <junction id="3" type="priority" x="200.00" y="0.00" incLanes="2to3_0" intLanes="" shape="200.00,0.00 200.00,3.20 200.00,0.00">
        <request index="0" response="0" foes="0"/>
    </junction>
    
    <junction id="4" type="priority" x="200.00" y="100.00" incLanes="3to4_0" intLanes="" shape="200.00,100.00 200.00,103.20 200.00,100.00">
        <request index="0" response="0" foes="0"/>
    </junction>

</net>
