<?xml version="1.0" encoding="UTF-8"?>

<!-- generated on 2025-11-10 15:11:24 by Eclipse SUMO netedit Version 1.24.0
-->

<routes xmlns:xsi="http://www.w3.org/2001/XMLSchema-instance" xsi:noNamespaceSchemaLocation="http://sumo.dlr.de/xsd/routes_file.xsd">
    <!-- Vehicles, persons and containers (sorted by depart) -->
    <trip id="t_0" depart="0.00" from="E0" to="E0"/>
    <trip id="t_1" depart="0.00" from="-E1" to="-E1"/>
    <trip id="t_2" depart="0.00" from="-E2" to="-E2"/>
    <trip id="t_3" depart="0.00" from="-E3" to="-E3"/>
    <flow id="f_0" begin="0.00" color="grey" from="-E2" to="-E2" end="3600.00" vehsPerHour="500"/>
    <flow id="f_1" begin="0.00" color="grey" from="E0" to="E0" end="3600.00" vehsPerHour="500"/>
    <flow id="f_2" begin="0.00" color="grey" from="-E2" to="-E2" end="3600.00" period="exp(0.14)"/>
    <flow id="f_3" begin="0.00" color="grey" from="-E2" to="-E2" end="3600.00" vehsPerHour="500"/>
</routes>
