<?xml version="1.0" encoding="UTF-8"?>

<!-- generated on 2025-11-12 18:03:28 by Eclipse SUMO netedit Version 1.24.0
<neteditConfiguration xmlns:xsi="http://www.w3.org/2001/XMLSchema-instance" xsi:noNamespaceSchemaLocation="http://sumo.dlr.de/xsd/neteditConfiguration.xsd">

    <input>
        <sumocfg-file value="Test2.sumocfg"/>
        <route-files value="Test2.rou.xml"/>
        <sumo-net-file value="traffic_light-main/resource/test_2.net.xml"/>
    </input>

    <output>
        <output-file value="traffic_light-main/resource/test_2.net.xml"/>
    </output>

    <processing>
        <geometry.min-radius.fix.railways value="false"/>
        <geometry.avoid-overlap value="false"/>
        <geometry.max-grade.fix value="false"/>
        <offset.disable-normalization value="true"/>
        <lefthand value="0"/>
    </processing>

    <junctions>
        <no-turnarounds value="true"/>
        <junctions.corner-detail value="5"/>
        <junctions.limit-turn-speed value="5.50"/>
        <rectangular-lane-cut value="0"/>
    </junctions>

    <pedestrian>
        <walkingareas value="0"/>
    </pedestrian>

    <netedit>
        <ignore.routeelements value="false"/>
    </netedit>

</neteditConfiguration>
-->

<net version="1.20" junctionCornerDetail="5" limitTurnSpeed="5.50" avoidOverlap="0" xmlns:xsi="http://www.w3.org/2001/XMLSchema-instance" xsi:noNamespaceSchemaLocation="http://sumo.dlr.de/xsd/net_file.xsd">

    <location netOffset="0.00,0.00" convBoundary="-66.04,-33.96,30.95,39.72" origBoundary="-10000000000.00,-10000000000.00,10000000000.00,10000000000.00" projParameter="!"/>

    <edge id=":J1_0" function="internal">
        <lane id=":J1_0_0" index="0" speed="6.52" length="9.05" shape="-9.60,10.18 -12.05,10.51 -13.81,11.55 -14.88,13.30 -15.25,15.76"/>
    </edge>
    <edge id=":J1_1" function="internal">
        <lane id=":J1_1_0" index="0" speed="13.89" length="15.35" shape="-9.60,10.18 -24.95,10.12"/>
    </edge>
    <edge id=":J1_2" function="internal">
        <lane id=":J1_2_0" index="0" speed="8.20" length="3.90" shape="-9.60,10.18 -13.45,9.54"/>
    </edge>
    <edge id=":J1_15" function="internal">
        <lane id=":J1_15_0" index="0" speed="8.20" length="11.08" shape="-13.45,9.54 -16.18,7.68 -17.81,4.62 -18.32,0.34"/>
    </edge>
    <edge id=":J1_3" function="internal">
        <lane id=":J1_3_0" index="0" speed="6.76" length="9.82" shape="-15.12,0.37 -14.79,3.24 -13.76,5.30 -12.02,6.55 -9.58,6.98"/>
    </edge>
    <edge id=":J1_4" function="internal">
        <lane id=":J1_4_0" index="0" speed="13.89" length="15.39" shape="-15.12,0.37 -15.25,15.76"/>
    </edge>
    <edge id=":J1_5" function="internal">
        <lane id=":J1_5_0" index="0" speed="8.43" length="4.31" shape="-15.12,0.37 -15.77,4.64"/>
    </edge>
    <edge id=":J1_16" function="internal">
        <lane id=":J1_16_0" index="0" speed="8.43" length="11.45" shape="-15.77,4.64 -17.62,7.68 -20.68,9.51 -24.95,10.12"/>
    </edge>
    <edge id=":J1_6" function="internal">
        <lane id=":J1_6_0" index="0" allow="bicycle" speed="5.67" length="7.27" width="1.00" shape="-24.95,4.82 -22.98,4.54 -21.57,3.70 -20.72,2.29 -20.42,0.32"/>
    </edge>
    <edge id=":J1_7" function="internal">
        <lane id=":J1_7_0" index="0" allow="bicycle" speed="13.89" length="15.42" width="1.00" shape="-24.95,4.82 -9.57,5.88"/>
    </edge>
    <edge id=":J1_8" function="internal">
        <lane id=":J1_8_0" index="0" speed="7.03" length="4.37" shape="-24.95,6.92 -22.07,6.51 -20.82,5.76"/>
    </edge>
    <edge id=":J1_9" function="internal">
        <lane id=":J1_9_0" index="0" speed="13.89" length="15.38" shape="-24.95,6.92 -9.58,6.98"/>
    </edge>
    <edge id=":J1_10" function="internal">
        <lane id=":J1_10_0" index="0" speed="8.18" length="4.54" shape="-24.95,6.92 -20.68,7.47 -20.47,7.58"/>
    </edge>
    <edge id=":J1_17" function="internal">
        <lane id=":J1_17_0" index="0" speed="7.03" length="6.26" shape="-20.82,5.76 -20.01,5.28 -18.75,3.22 -18.32,0.34"/>
    </edge>
    <edge id=":J1_18" function="internal">
        <lane id=":J1_18_0" index="0" speed="8.18" length="10.44" shape="-20.47,7.58 -17.64,9.13 -15.83,11.89 -15.25,15.76"/>
    </edge>
    <edge id=":J1_11" function="internal">
        <lane id=":J1_11_0" index="0" speed="6.73" length="9.80" shape="-18.45,15.73 -18.84,13.28 -20.05,11.52 -22.09,10.47 -24.95,10.12"/>
    </edge>
    <edge id=":J1_12" function="internal">
        <lane id=":J1_12_0" index="0" allow="bicycle" speed="13.89" length="15.41" width="1.00" shape="-19.55,15.72 -20.42,0.32"/>
        <lane id=":J1_12_1" index="1" speed="13.89" length="15.41" shape="-18.45,15.73 -18.32,0.34"/>
    </edge>
    <edge id=":J1_14" function="internal">
        <lane id=":J1_14_0" index="0" speed="8.01" length="4.08" shape="-18.45,15.73 -17.87,11.88 -17.77,11.72"/>
    </edge>
    <edge id=":J1_19" function="internal">
        <lane id=":J1_19_0" index="0" speed="8.01" length="10.13" shape="-17.77,11.72 -16.19,9.13 -13.43,7.50 -9.58,6.98"/>
    </edge>

    <edge id="-E0" from="J1" to="J0" priority="-1">
        <lane id="-E0_0" index="0" speed="13.89" length="41.09" shape="-24.95,10.12 -66.04,10.12"/>
    </edge>
    <edge id="-E1" from="J2" to="J1" priority="-1">
        <lane id="-E1_0" index="0" speed="13.89" length="34.32" shape="-14.82,-33.95 -15.12,0.37"/>
    </edge>
    <edge id="-E2" from="J3" to="J1" priority="-1">
        <lane id="-E2_0" index="0" speed="13.89" length="40.54" shape="30.94,10.50 -9.60,10.18"/>
    </edge>
    <edge id="-E3" from="J4" to="J1" priority="-1">
        <lane id="-E3_0" index="0" speed="13.89" length="23.98" shape="-18.64,39.71 -18.45,15.73"/>
    </edge>
    <edge id="E0" from="J0" to="J1" priority="-1">
        <lane id="E0_0" index="0" allow="bicycle" speed="13.89" length="41.09" width="1.00" shape="-66.04,4.82 -24.95,4.82"/>
        <lane id="E0_1" index="1" speed="13.89" length="41.09" shape="-66.04,6.92 -24.95,6.92"/>
    </edge>
    <edge id="E1" from="J1" to="J2" priority="-1">
        <lane id="E1_0" index="0" allow="bicycle" speed="13.89" length="34.32" width="1.00" shape="-20.42,0.32 -20.12,-33.99"/>
        <lane id="E1_1" index="1" speed="13.89" length="34.32" shape="-18.32,0.34 -18.02,-33.97"/>
    </edge>
    <edge id="E2" from="J1" to="J3" priority="-1">
        <lane id="E2_0" index="0" speed="13.89" length="40.54" shape="-9.58,6.98 30.96,7.30"/>
    </edge>
    <edge id="E3" from="J1" to="J4" priority="-1">
        <lane id="E3_0" index="0" speed="13.89" length="23.98" shape="-15.25,15.76 -15.44,39.73"/>
    </edge>

    <tlLogic id="J1" type="static" programID="0" offset="0">
        <phase duration="42" state="GGgrrrGggGgrrrr"/>
        <phase duration="3"  state="yyyrrryyyyyrrrr"/>
        <phase duration="42" state="rrrGGgrrrrrGGGg"/>
        <phase duration="3"  state="rrryyyrrrrryyyy"/>
    </tlLogic>

    <junction id="J0" type="dead_end" x="-66.04" y="8.52" incLanes="-E0_0" intLanes="" shape="-66.04,8.52 -66.04,11.72 -66.04,8.52"/>
    <junction id="J1" type="traffic_light" x="-16.79" y="8.52" incLanes="-E2_0 -E1_0 E0_0 E0_1 -E3_0" intLanes=":J1_0_0 :J1_1_0 :J1_15_0 :J1_3_0 :J1_4_0 :J1_16_0 :J1_6_0 :J1_7_0 :J1_17_0 :J1_9_0 :J1_18_0 :J1_11_0 :J1_12_0 :J1_12_1 :J1_19_0" shape="-9.61,11.78 -9.56,5.38 -11.78,4.81 -12.55,4.11 -13.10,3.14 -13.42,1.90 -13.52,0.38 -20.92,0.32 -21.38,2.54 -21.94,3.32 -22.73,3.88 -23.73,4.21 -24.95,4.32 -24.95,11.72 -22.21,12.16 -21.26,12.72 -20.58,13.50 -20.18,14.50 -20.05,15.72 -13.65,15.77 -13.19,13.54 -12.62,12.76 -11.84,12.21 -10.84,11.88">
        <request index="0"  response="000000000000000" foes="000010000010000" cont="0"/>
        <request index="1"  response="100000000100000" foes="111110000110000" cont="0"/>
        <request index="2"  response="100011110100000" foes="110011110110000" cont="1"/>
        <request index="3"  response="000001010000000" foes="100001010000000" cont="0"/>
        <request index="4"  response="000011010000111" foes="100011010000111" cont="0"/>
        <request index="5"  response="111111010000110" foes="111111010000110" cont="1"/>
        <request index="6"  response="000000000000000" foes="001000000000000" cont="0"/>
        <request index="7"  response="100001000100000" foes="111001100111100" cont="0"/>
        <request index="8"  response="000000010000000" foes="011000010000100" cont="1"/>
        <request index="9"  response="100000000100000" foes="111000010111100" cont="0"/>
        <request index="10" response="100000000100011" foes="111000000110111" cont="1"/>
        <request index="11" response="000000000000010" foes="000000000100010" cont="0"/>
        <request index="12" response="000011111000010" foes="000011111100010" cont="0"/>
        <request index="13" response="000011110000110" foes="000011110100110" cont="0"/>
        <request index="14" response="000011010011110" foes="000011010111110" cont="1"/>
    </junction>
    <junction id="J2" type="dead_end" x="-16.42" y="-33.96" incLanes="E1_0 E1_1" intLanes="" shape="-16.42,-33.96 -20.62,-34.00 -16.42,-33.96"/>
    <junction id="J3" type="dead_end" x="30.95" y="8.90" incLanes="E2_0" intLanes="" shape="30.95,8.90 30.98,5.70 30.95,8.90"/>
    <junction id="J4" type="dead_end" x="-17.04" y="39.72" incLanes="E3_0" intLanes="" shape="-17.04,39.72 -13.84,39.75 -17.04,39.72"/>

    <junction id=":J1_15_0" type="internal" x="-13.45" y="9.54" incLanes=":J1_2_0 E0_0 E0_1" intLanes=":J1_4_0 :J1_5_0 :J1_6_0 :J1_7_0 :J1_8_0 :J1_9_0 :J1_12_0 :J1_12_1 :J1_14_0"/>
    <junction id=":J1_16_0" type="internal" x="-15.77" y="4.64" incLanes=":J1_5_0 -E3_0" intLanes=":J1_1_0 :J1_2_0 :J1_7_0 :J1_9_0 :J1_10_0 :J1_11_0 :J1_12_0 :J1_12_1"/>
    <junction id=":J1_17_0" type="internal" x="-20.82" y="5.76" incLanes=":J1_8_0 E0_0" intLanes=":J1_2_0 :J1_7_0 :J1_12_0 :J1_12_1"/>
    <junction id=":J1_18_0" type="internal" x="-20.47" y="7.58" incLanes=":J1_10_0 -E2_0" intLanes=":J1_0_0 :J1_1_0 :J1_4_0 :J1_5_0 :J1_12_0 :J1_12_1 :J1_14_0"/>
    <junction id=":J1_19_0" type="internal" x="-17.77" y="11.72" incLanes=":J1_14_0 -E1_0" intLanes=":J1_1_0 :J1_2_0 :J1_3_0 :J1_4_0 :J1_7_0 :J1_9_0 :J1_10_0"/>

    <connection from="-E1" to="E2" fromLane="0" toLane="0" via=":J1_3_0" tl="J1" linkIndex="3" dir="r" state="o"/>
    <connection from="-E1" to="E3" fromLane="0" toLane="0" via=":J1_4_0" tl="J1" linkIndex="4" dir="s" state="o"/>
    <connection from="-E1" to="-E0" fromLane="0" toLane="0" via=":J1_5_0" tl="J1" linkIndex="5" dir="l" state="o"/>
    <connection from="-E2" to="E3" fromLane="0" toLane="0" via=":J1_0_0" tl="J1" linkIndex="0" dir="r" state="O"/>
    <connection from="-E2" to="-E0" fromLane="0" toLane="0" via=":J1_1_0" tl="J1" linkIndex="1" dir="s" state="O"/>
    <connection from="-E2" to="E1" fromLane="0" toLane="1" via=":J1_2_0" tl="J1" linkIndex="2" dir="l" state="o"/>
    <connection from="-E3" to="-E0" fromLane="0" toLane="0" via=":J1_11_0" tl="J1" linkIndex="11" dir="r" state="o"/>
    <connection from="-E3" to="E1" fromLane="0" toLane="0" via=":J1_12_0" tl="J1" linkIndex="12" dir="s" state="o"/>
    <connection from="-E3" to="E1" fromLane="0" toLane="1" via=":J1_12_1" tl="J1" linkIndex="13" dir="s" state="o"/>
    <connection from="-E3" to="E2" fromLane="0" toLane="0" via=":J1_14_0" tl="J1" linkIndex="14" dir="l" state="o"/>
    <connection from="E0" to="E1" fromLane="0" toLane="0" via=":J1_6_0" tl="J1" linkIndex="6" dir="r" state="O"/>
    <connection from="E0" to="E2" fromLane="0" toLane="0" via=":J1_7_0" tl="J1" linkIndex="7" dir="s" state="o"/>
    <connection from="E0" to="E1" fromLane="1" toLane="1" via=":J1_8_0" tl="J1" linkIndex="8" dir="r" state="o"/>
    <connection from="E0" to="E2" fromLane="1" toLane="0" via=":J1_9_0" tl="J1" linkIndex="9" dir="s" state="O"/>
    <connection from="E0" to="E3" fromLane="1" toLane="0" via=":J1_10_0" tl="J1" linkIndex="10" dir="l" state="o"/>

    <connection from=":J1_0" to="E3" fromLane="0" toLane="0" dir="r" state="M"/>
    <connection from=":J1_1" to="-E0" fromLane="0" toLane="0" dir="s" state="M"/>
    <connection from=":J1_2" to="E1" fromLane="0" toLane="1" via=":J1_15_0" dir="l" state="m"/>
    <connection from=":J1_15" to="E1" fromLane="0" toLane="1" dir="l" state="M"/>
    <connection from=":J1_3" to="E2" fromLane="0" toLane="0" dir="r" state="M"/>
    <connection from=":J1_4" to="E3" fromLane="0" toLane="0" dir="s" state="M"/>
    <connection from=":J1_5" to="-E0" fromLane="0" toLane="0" via=":J1_16_0" dir="l" state="m"/>
    <connection from=":J1_16" to="-E0" fromLane="0" toLane="0" dir="l" state="M"/>
    <connection from=":J1_6" to="E1" fromLane="0" toLane="0" dir="r" state="M"/>
    <connection from=":J1_7" to="E2" fromLane="0" toLane="0" dir="s" state="M"/>
    <connection from=":J1_8" to="E1" fromLane="0" toLane="1" via=":J1_17_0" dir="r" state="m"/>
    <connection from=":J1_17" to="E1" fromLane="0" toLane="1" dir="r" state="M"/>
    <connection from=":J1_9" to="E2" fromLane="0" toLane="0" dir="s" state="M"/>
    <connection from=":J1_10" to="E3" fromLane="0" toLane="0" via=":J1_18_0" dir="l" state="m"/>
    <connection from=":J1_18" to="E3" fromLane="0" toLane="0" dir="l" state="M"/>
    <connection from=":J1_11" to="-E0" fromLane="0" toLane="0" dir="r" state="M"/>
    <connection from=":J1_12" to="E1" fromLane="0" toLane="0" dir="s" state="M"/>
    <connection from=":J1_12" to="E1" fromLane="1" toLane="1" dir="s" state="M"/>
    <connection from=":J1_14" to="E2" fromLane="0" toLane="0" via=":J1_19_0" dir="l" state="m"/>
    <connection from=":J1_19" to="E2" fromLane="0" toLane="0" dir="l" state="M"/>

</net>
